<?xml version="1.0" encoding="UTF-8"?>
<feed xml:lang="en-US" xmlns="http://www.w3.org/2005/Atom" xmlns:opensearch="http://a9.com/-/spec/opensearch/1.1/" xmlns:s="http://jadedpixel.com/-/spec/shopify">
  <id>https://egrimesdirect.com/collections/all.atom</id>
  <link rel="alternate" type="text/html" href="https://egrimesdirect.com/collections/all"/>
  <link rel="self" type="application/atom+xml" href="https://egrimesdirect.com/collections/pneumatic-drills-drilling-tools.atom"/>
  <title>eGrimesDirect</title>
  <updated>2019-12-04T10:31:27-05:00</updated>
  <author>
    <name>eGrimesDirect</name>
  </author>
  <entry>
    <id>https://egrimesdirect.com/products/1812252950572</id>
    <published>2019-12-04T10:31:27-05:00</published>
    <updated>2019-12-04T10:31:27-05:00</updated>
    <link rel="alternate" type="text/html" href="https://egrimesdirect.com/products/dynabrade-52986"/>
    <title>Dynabrade 52986  - 3/8 Inch Drill .4 Hp 500 Rpm Pistol-Grip Geared Rear Exhaust Jacobs</title>
    <s:type>Pistol Grip Drills</s:type>
    <s:vendor>Dynabrade</s:vendor>
    <summary type="html">
      <![CDATA[<table border="0">
  <tr>
    <td width="200"><img width="200" src="https://cdn.shopify.com/s/files/1/2737/7978/products/pistol-grip-drills-dynabrade-52986-3-8-inch-drill-4-hp-500-rpm-pistol-grip-geared-rear-exhaust-jacobs-12746754981932.jpg?v=1579069593"></td>
    <td valign="bottom">
      <p>

        <strong>Vendor: </strong>Dynabrade<br>
        <strong>Type: </strong>Pistol Grip Drills<br>
        <strong>Price: </strong>
            1126.26
      </p>
    </td>
  </tr>
  <tr>
    <td colspan="2">[shortdesc]<li class="extra-info">3/8 Inch Drill</li><li class="extra-info"> .4 hp (298 W) Pistol Grip Drill offered in ergonomic Dynabrade design, with comfortable textured tactile grip.
Powerful high-torque, geared air motor is ideal for countless industrial applications.</li><li class="extra-info"> Finger platform on both sides of tool allows increased stability and comfort.</li><li class="extra-info"> Model includes 3/8 Inch Jacobs Chuck &amp; Key</li><li class="extra-info">No Dynachuck available.</li><li class="extra-info"> Comfortable textured tactile tool grip.</li><li class="extra-info"> No Reverse.</li>[/shortdesc]<h2> Product Information </h2><table class="egrimes">
<tr class="egrimes">
<td class="egrimes" style="width:35%;"> Brand </td>
<td class="egrimes">Dynabrade</td>
</tr>
<tr class="egrimes">
<td class="egrimes"> Origin Country </td>
<td class="egrimes">United States</td>
</tr>
<tr class="egrimes">
<td class="egrimes"> Product Type </td>
<td class="egrimes">Pistol Grip Drills</td>
</tr>
<tr class="egrimes">
<td class="egrimes"> Spindle Thread </td>
<td class="egrimes">3/8 Inch - 24 Male</td>
</tr>
</table>   </td>
  </tr>
</table>
]]>
    </summary>
    <s:tag>AT</s:tag>
    <s:tag>AT DRI</s:tag>
    <s:tag>Spindle Thread_3/8 Inch - 24 Male</s:tag>
    <s:tag>ws_group</s:tag>
    <s:tag>ws_group:ad_pricing</s:tag>
    <s:tag>ws_group:bracket_3</s:tag>
    <s:tag>ws_group:bracket_4</s:tag>
    <s:variant>
      <id>https://egrimesdirect.com/products/1812252950572</id>
      <title>Default Title</title>
      <s:price currency="CAD">1126.26</s:price>
      <s:sku>AT DRI 52986</s:sku>
      <s:grams>1542</s:grams>
    </s:variant>
  </entry>
  <entry>
    <id>https://egrimesdirect.com/products/1812252852268</id>
    <published>2019-12-04T10:31:27-05:00</published>
    <updated>2019-12-04T10:31:27-05:00</updated>
    <link rel="alternate" type="text/html" href="https://egrimesdirect.com/products/dynabrade-52987"/>
    <title>Dynabrade 52987  - 3/8 Inch Drill .4 Hp 1000 Rpm Pistol-Grip Geared Rear Exhaust Jacobs</title>
    <s:type>Pistol Grip Drills</s:type>
    <s:vendor>Dynabrade</s:vendor>
    <summary type="html">
      <![CDATA[<table border="0">
  <tr>
    <td width="200"><img width="200" src="https://cdn.shopify.com/s/files/1/2737/7978/products/pistol-grip-drills-dynabrade-52987-3-8-inch-drill-4-hp-1000-rpm-pistol-grip-geared-rear-exhaust-jacobs-12746754523180.jpg?v=1579069636"></td>
    <td valign="bottom">
      <p>

        <strong>Vendor: </strong>Dynabrade<br>
        <strong>Type: </strong>Pistol Grip Drills<br>
        <strong>Price: </strong>
            1126.26
      </p>
    </td>
  </tr>
  <tr>
    <td colspan="2">[shortdesc]<li class="extra-info">3/8 Inch Drill</li><li class="extra-info"> .4 hp (298 W) Pistol Grip Drill offered in ergonomic Dynabrade design, with comfortable textured tactile grip.
Powerful high-torque, geared air motor is ideal for countless industrial applications.</li><li class="extra-info"> Finger platform on both sides of tool allows increased stability and comfort.</li><li class="extra-info"> Model includes 3/8 Inch Jacobs Chuck &amp; Key</li><li class="extra-info">No Dynachuck available.</li><li class="extra-info"> Comfortable textured tactile tool grip.</li><li class="extra-info"> No Reverse.</li>[/shortdesc]<h2> Product Information </h2><table class="egrimes">
<tr class="egrimes">
<td class="egrimes" style="width:35%;"> Brand </td>
<td class="egrimes">Dynabrade</td>
</tr>
<tr class="egrimes">
<td class="egrimes"> Origin Country </td>
<td class="egrimes">United States</td>
</tr>
<tr class="egrimes">
<td class="egrimes"> Product Type </td>
<td class="egrimes">Pistol Grip Drills</td>
</tr>
<tr class="egrimes">
<td class="egrimes"> Spindle Thread </td>
<td class="egrimes">3/8 Inch - 24 Male</td>
</tr>
</table>   </td>
  </tr>
</table>
]]>
    </summary>
    <s:tag>AT</s:tag>
    <s:tag>AT DRI</s:tag>
    <s:tag>Spindle Thread_3/8 Inch - 24 Male</s:tag>
    <s:tag>ws_group</s:tag>
    <s:tag>ws_group:ad_pricing</s:tag>
    <s:tag>ws_group:bracket_3</s:tag>
    <s:tag>ws_group:bracket_4</s:tag>
    <s:variant>
      <id>https://egrimesdirect.com/products/1812252852268</id>
      <title>Default Title</title>
      <s:price currency="CAD">1126.26</s:price>
      <s:sku>AT DRI 52987</s:sku>
      <s:grams>1542</s:grams>
    </s:variant>
  </entry>
  <entry>
    <id>https://egrimesdirect.com/products/1812254064684</id>
    <published>2019-12-04T10:31:26-05:00</published>
    <updated>2019-12-04T10:31:26-05:00</updated>
    <link rel="alternate" type="text/html" href="https://egrimesdirect.com/products/dynabrade-52932"/>
    <title>Dynabrade 52932  - 1/4 Inch Drill .4 Hp 1000 Rpm Pistol-Grip Geared Rear Exhaust Jacobs</title>
    <s:type>Pistol Grip Drills</s:type>
    <s:vendor>Dynabrade</s:vendor>
    <summary type="html">
      <![CDATA[<table border="0">
  <tr>
    <td width="200"><img width="200" src="https://cdn.shopify.com/s/files/1/2737/7978/products/pistol-grip-drills-dynabrade-52932-1-4-inch-drill-4-hp-1000-rpm-pistol-grip-geared-rear-exhaust-jacobs-12782472527916.png?v=1579069345"></td>
    <td valign="bottom">
      <p>

        <strong>Vendor: </strong>Dynabrade<br>
        <strong>Type: </strong>Pistol Grip Drills<br>
        <strong>Price: </strong>
            1081.59
      </p>
    </td>
  </tr>
  <tr>
    <td colspan="2">[shortdesc]<li class="extra-info">1/4 Inch Drill</li><li class="extra-info"> .4 hp (298 W) Pistol Grip Drill offered in ergonomic Dynabrade design, with comfortable textured tactile grip.
Powerful high-torque, geared air motor is ideal for countless industrial applications.</li><li class="extra-info"> Finger platform on both sides of tool allows increased stability and comfort.Comfortable textured tactile tool grip.</li><li class="extra-info"> No Reverse.</li>[/shortdesc]<h2> Product Information </h2><table class="egrimes">
<tr class="egrimes">
<td class="egrimes" style="width:35%;"> Brand </td>
<td class="egrimes">Dynabrade</td>
</tr>
<tr class="egrimes">
<td class="egrimes"> Height </td>
<td class="egrimes">36 Inch</td>
</tr>
<tr class="egrimes">
<td class="egrimes"> HP </td>
<td class="egrimes">1</td>
</tr>
<tr class="egrimes">
<td class="egrimes"> Origin Country </td>
<td class="egrimes">United States</td>
</tr>
<tr class="egrimes">
<td class="egrimes"> Product Type </td>
<td class="egrimes">Pistol Grip Drills</td>
</tr>
<tr class="egrimes">
<td class="egrimes"> Spindle Thread </td>
<td class="egrimes">3/8 Inch - 24 Male</td>
</tr>
</table>   </td>
  </tr>
</table>
]]>
    </summary>
    <s:tag>AT</s:tag>
    <s:tag>AT DRI</s:tag>
    <s:tag>Height_36 Inch</s:tag>
    <s:tag>HP_1</s:tag>
    <s:tag>Spindle Thread_3/8 Inch - 24 Male</s:tag>
    <s:tag>ws_group</s:tag>
    <s:tag>ws_group:ad_pricing</s:tag>
    <s:tag>ws_group:bracket_3</s:tag>
    <s:tag>ws_group:bracket_4</s:tag>
    <s:variant>
      <id>https://egrimesdirect.com/products/1812254064684</id>
      <title>Default Title</title>
      <s:price currency="CAD">1081.59</s:price>
      <s:sku>AT DRI 52932</s:sku>
      <s:grams>1451</s:grams>
    </s:variant>
  </entry>
  <entry>
    <id>https://egrimesdirect.com/products/1812254097452</id>
    <published>2019-12-04T10:31:25-05:00</published>
    <updated>2019-12-04T10:31:25-05:00</updated>
    <link rel="alternate" type="text/html" href="https://egrimesdirect.com/products/dynabrade-52931"/>
    <title>Dynabrade 52931  - 1/4 Inch Drill .4 Hp 500 Rpm Pistol-Grip Geared Rear Exhaust Jacobs</title>
    <s:type>Pistol Grip Drills</s:type>
    <s:vendor>Dynabrade</s:vendor>
    <summary type="html">
      <![CDATA[<table border="0">
  <tr>
    <td width="200"><img width="200" src="https://cdn.shopify.com/s/files/1/2737/7978/products/pistol-grip-drills-dynabrade-52931-1-4-inch-drill-4-hp-500-rpm-pistol-grip-geared-rear-exhaust-jacobs-12782472495148.png?v=1579069397"></td>
    <td valign="bottom">
      <p>

        <strong>Vendor: </strong>Dynabrade<br>
        <strong>Type: </strong>Pistol Grip Drills<br>
        <strong>Price: </strong>
            1081.59
      </p>
    </td>
  </tr>
  <tr>
    <td colspan="2">[shortdesc]<li class="extra-info">1/4 Inch Drill</li><li class="extra-info"> .4 hp (298 W) Pistol Grip Drill offered in ergonomic Dynabrade design, with comfortable textured tactile grip.
Powerful high-torque, geared air motor is ideal for countless industrial applications.</li><li class="extra-info"> Finger platform on both sides of tool allows increased stability and comfort.Comfortable textured tactile tool grip.</li><li class="extra-info"> No Reverse.</li>[/shortdesc]<h2> Product Information </h2><table class="egrimes">
<tr class="egrimes">
<td class="egrimes" style="width:35%;"> Brand </td>
<td class="egrimes">Dynabrade</td>
</tr>
<tr class="egrimes">
<td class="egrimes"> Height </td>
<td class="egrimes">36 Inch</td>
</tr>
<tr class="egrimes">
<td class="egrimes"> HP </td>
<td class="egrimes">1</td>
</tr>
<tr class="egrimes">
<td class="egrimes"> Origin Country </td>
<td class="egrimes">United States</td>
</tr>
<tr class="egrimes">
<td class="egrimes"> Product Type </td>
<td class="egrimes">Pistol Grip Drills</td>
</tr>
<tr class="egrimes">
<td class="egrimes"> Spindle Thread </td>
<td class="egrimes">3/8 Inch - 24 Male</td>
</tr>
</table>   </td>
  </tr>
</table>
]]>
    </summary>
    <s:tag>AT</s:tag>
    <s:tag>AT DRI</s:tag>
    <s:tag>Height_36 Inch</s:tag>
    <s:tag>HP_1</s:tag>
    <s:tag>Spindle Thread_3/8 Inch - 24 Male</s:tag>
    <s:tag>ws_group</s:tag>
    <s:tag>ws_group:ad_pricing</s:tag>
    <s:tag>ws_group:bracket_3</s:tag>
    <s:tag>ws_group:bracket_4</s:tag>
    <s:variant>
      <id>https://egrimesdirect.com/products/1812254097452</id>
      <title>Default Title</title>
      <s:price currency="CAD">1081.59</s:price>
      <s:sku>AT DRI 52931</s:sku>
      <s:grams>1451</s:grams>
    </s:variant>
  </entry>
  <entry>
    <id>https://egrimesdirect.com/products/1812262027308</id>
    <published>2019-12-04T10:31:20-05:00</published>
    <updated>2019-12-04T10:31:20-05:00</updated>
    <link rel="alternate" type="text/html" href="https://egrimesdirect.com/products/dynabrade-52832"/>
    <title>Dynabrade 52832  - 1/4 Inch Drill .4 Hp 1000 Rpm Pistol-Grip Geared Rear Exhaust Dynachuck</title>
    <s:type>Pistol Grip Drills</s:type>
    <s:vendor>Dynabrade</s:vendor>
    <summary type="html">
      <![CDATA[<table border="0">
  <tr>
    <td width="200"><img width="200" src="https://cdn.shopify.com/s/files/1/2737/7978/products/pistol-grip-drills-dynabrade-52832-1-4-inch-drill-4-hp-1000-rpm-pistol-grip-geared-rear-exhaust-dynachuck-12782471807020.png?v=1579068078"></td>
    <td valign="bottom">
      <p>

        <strong>Vendor: </strong>Dynabrade<br>
        <strong>Type: </strong>Pistol Grip Drills<br>
        <strong>Price: </strong>
            950.17
      </p>
    </td>
  </tr>
  <tr>
    <td colspan="2">[shortdesc]<li class="extra-info">1/4 Inch Drill</li><li class="extra-info"> .4 hp, 1,000 RPM, Pistol-Grip, Geared, Rear Exhaust, DynaChuck</li><li class="extra-info"> .4 hp (298 W) Pistol Grip Drill offered in ergonomic Dynabrade design, with comfortable textured tactile grip.
Powerful high-torque, geared air motor is ideal for countless industrial applications.</li><li class="extra-info"> Finger platform on both sides of tool allows increased stability and comfort.Comfortable textured tactile tool grip.</li><li class="extra-info"> No Reverse.</li>[/shortdesc]<h2> Product Information </h2><table class="egrimes">
<tr class="egrimes">
<td class="egrimes" style="width:35%;"> Brand </td>
<td class="egrimes">Dynabrade</td>
</tr>
<tr class="egrimes">
<td class="egrimes"> Origin Country </td>
<td class="egrimes">United States</td>
</tr>
<tr class="egrimes">
<td class="egrimes"> Product Type </td>
<td class="egrimes">Pistol Grip Drills</td>
</tr>
<tr class="egrimes">
<td class="egrimes"> Spindle Thread </td>
<td class="egrimes">3/8 Inch - 24 Male</td>
</tr>
</table>   </td>
  </tr>
</table>
]]>
    </summary>
    <s:tag>AT</s:tag>
    <s:tag>AT DRI</s:tag>
    <s:tag>Spindle Thread_3/8 Inch - 24 Male</s:tag>
    <s:tag>ws_group</s:tag>
    <s:tag>ws_group:ad_pricing</s:tag>
    <s:tag>ws_group:bracket_3</s:tag>
    <s:tag>ws_group:bracket_4</s:tag>
    <s:variant>
      <id>https://egrimesdirect.com/products/1812262027308</id>
      <title>Default Title</title>
      <s:price currency="CAD">950.17</s:price>
      <s:sku>AT DRI 52832</s:sku>
      <s:grams>1451</s:grams>
    </s:variant>
  </entry>
  <entry>
    <id>https://egrimesdirect.com/products/1812262158380</id>
    <published>2019-12-04T10:31:19-05:00</published>
    <updated>2019-12-04T10:31:19-05:00</updated>
    <link rel="alternate" type="text/html" href="https://egrimesdirect.com/products/dynabrade-52831"/>
    <title>Dynabrade 52831  - 1/4 Inch Drill .4 Hp 500 Rpm Pistol-Grip Geared Rear Exhaust Dynachuck</title>
    <s:type>Pistol Grip Drills</s:type>
    <s:vendor>Dynabrade</s:vendor>
    <summary type="html">
      <![CDATA[<table border="0">
  <tr>
    <td width="200"><img width="200" src="https://cdn.shopify.com/s/files/1/2737/7978/products/pistol-grip-drills-dynabrade-52831-1-4-inch-drill-4-hp-500-rpm-pistol-grip-geared-rear-exhaust-dynachuck-12782471905324.png?v=1579081192"></td>
    <td valign="bottom">
      <p>

        <strong>Vendor: </strong>Dynabrade<br>
        <strong>Type: </strong>Pistol Grip Drills<br>
        <strong>Price: </strong>
            950.17
      </p>
    </td>
  </tr>
  <tr>
    <td colspan="2">[shortdesc]<li class="extra-info">1/4 Inch Drill</li><li class="extra-info"> .4 hp, 500 RPM, Pistol-Grip, Geared, Rear Exhaust, DynaChuck</li><li class="extra-info"> .4 hp (298 W) Pistol Grip Drill offered in ergonomic Dynabrade design, with comfortable textured tactile grip.
Powerful high-torque, geared air motor is ideal for countless industrial applications.</li><li class="extra-info"> Finger platform on both sides of tool allows increased stability and comfort.Comfortable textured tactile tool grip.</li><li class="extra-info"> No Reverse.</li>[/shortdesc]<h2> Product Information </h2><table class="egrimes">
<tr class="egrimes">
<td class="egrimes" style="width:35%;"> Brand </td>
<td class="egrimes">Dynabrade</td>
</tr>
<tr class="egrimes">
<td class="egrimes"> Origin Country </td>
<td class="egrimes">United States</td>
</tr>
<tr class="egrimes">
<td class="egrimes"> Product Type </td>
<td class="egrimes">Pistol Grip Drills</td>
</tr>
<tr class="egrimes">
<td class="egrimes"> Spindle Thread </td>
<td class="egrimes">3/8 Inch - 24 Male</td>
</tr>
</table>   </td>
  </tr>
</table>
]]>
    </summary>
    <s:tag>AT</s:tag>
    <s:tag>AT DRI</s:tag>
    <s:tag>Spindle Thread_3/8 Inch - 24 Male</s:tag>
    <s:tag>ws_group</s:tag>
    <s:tag>ws_group:ad_pricing</s:tag>
    <s:tag>ws_group:bracket_3</s:tag>
    <s:tag>ws_group:bracket_4</s:tag>
    <s:variant>
      <id>https://egrimesdirect.com/products/1812262158380</id>
      <title>Default Title</title>
      <s:price currency="CAD">950.17</s:price>
      <s:sku>AT DRI 52831</s:sku>
      <s:grams>1451</s:grams>
    </s:variant>
  </entry>
  <entry>
    <id>https://egrimesdirect.com/products/1812276838444</id>
    <published>2019-12-04T10:31:14-05:00</published>
    <updated>2019-12-04T10:31:14-05:00</updated>
    <link rel="alternate" type="text/html" href="https://egrimesdirect.com/products/dynabrade-52935"/>
    <title>Dynabrade 52935  - 1/4 Inch Drill .4 Hp 5500 Rpm Pistol-Grip Geared Rear Exhaust Jacobs</title>
    <s:type>Pistol Grip Drills</s:type>
    <s:vendor>Dynabrade</s:vendor>
    <summary type="html">
      <![CDATA[<table border="0">
  <tr>
    <td width="200"><img width="200" src="https://cdn.shopify.com/s/files/1/2737/7978/products/pistol-grip-drills-dynabrade-52935-1-4-inch-drill-4-hp-5500-rpm-pistol-grip-geared-rear-exhaust-jacobs-12746767007788.jpg?v=1579069430"></td>
    <td valign="bottom">
      <p>

        <strong>Vendor: </strong>Dynabrade<br>
        <strong>Type: </strong>Pistol Grip Drills<br>
        <strong>Price: </strong>
            820.07
      </p>
    </td>
  </tr>
  <tr>
    <td colspan="2">[shortdesc]<li class="extra-info">1/4 Inch Drill</li><li class="extra-info"> .4 hp (298 W) Pistol Grip Drill offered in ergonomic Dynabrade design, with comfortable textured tactile grip.
Powerful high-torque, geared air motor is ideal for countless industrial applications.</li><li class="extra-info"> Finger platform on both sides of tool allows increased stability and comfort.Comfortable textured tactile tool grip.</li><li class="extra-info"> No Reverse.</li>[/shortdesc]<h2> Product Information </h2><table class="egrimes">
<tr class="egrimes">
<td class="egrimes" style="width:35%;"> Brand </td>
<td class="egrimes">Dynabrade</td>
</tr>
<tr class="egrimes">
<td class="egrimes"> Origin Country </td>
<td class="egrimes">United States</td>
</tr>
<tr class="egrimes">
<td class="egrimes"> Product Type </td>
<td class="egrimes">Pistol Grip Drills</td>
</tr>
<tr class="egrimes">
<td class="egrimes"> Spindle Thread </td>
<td class="egrimes">3/8 Inch - 24 Male</td>
</tr>
</table>   </td>
  </tr>
</table>
]]>
    </summary>
    <s:tag>AT</s:tag>
    <s:tag>AT DRI</s:tag>
    <s:tag>Spindle Thread_3/8 Inch - 24 Male</s:tag>
    <s:tag>ws_group</s:tag>
    <s:tag>ws_group:ad_pricing</s:tag>
    <s:tag>ws_group:bracket_3</s:tag>
    <s:tag>ws_group:bracket_4</s:tag>
    <s:variant>
      <id>https://egrimesdirect.com/products/1812276838444</id>
      <title>Default Title</title>
      <s:price currency="CAD">820.07</s:price>
      <s:sku>AT DRI 52935</s:sku>
      <s:grams>1179</s:grams>
    </s:variant>
  </entry>
  <entry>
    <id>https://egrimesdirect.com/products/1812276772908</id>
    <published>2019-12-04T10:31:14-05:00</published>
    <updated>2019-12-04T10:31:14-05:00</updated>
    <link rel="alternate" type="text/html" href="https://egrimesdirect.com/products/dynabrade-52934"/>
    <title>Dynabrade 52934  - 1/4 Inch Drill .4 Hp 3600 Rpm Pistol-Grip Geared Rear Exhaust Jacobs</title>
    <s:type>Pistol Grip Drills</s:type>
    <s:vendor>Dynabrade</s:vendor>
    <summary type="html">
      <![CDATA[<table border="0">
  <tr>
    <td width="200"><img width="200" src="https://cdn.shopify.com/s/files/1/2737/7978/products/pistol-grip-drills-dynabrade-52934-1-4-inch-drill-4-hp-3600-rpm-pistol-grip-geared-rear-exhaust-jacobs-12782472658988.png?v=1579069562"></td>
    <td valign="bottom">
      <p>

        <strong>Vendor: </strong>Dynabrade<br>
        <strong>Type: </strong>Pistol Grip Drills<br>
        <strong>Price: </strong>
            820.07
      </p>
    </td>
  </tr>
  <tr>
    <td colspan="2">[shortdesc]<li class="extra-info">1/4 Inch Drill</li><li class="extra-info"> .4 hp (298 W) Pistol Grip Drill offered in ergonomic Dynabrade design, with comfortable textured tactile grip.
Powerful high-torque, geared air motor is ideal for countless industrial applications.</li><li class="extra-info"> Finger platform on both sides of tool allows increased stability and comfort.Comfortable textured tactile tool grip.</li><li class="extra-info"> No Reverse.</li>[/shortdesc]<h2> Product Information </h2><table class="egrimes">
<tr class="egrimes">
<td class="egrimes" style="width:35%;"> Brand </td>
<td class="egrimes">Dynabrade</td>
</tr>
<tr class="egrimes">
<td class="egrimes"> Origin Country </td>
<td class="egrimes">United States</td>
</tr>
<tr class="egrimes">
<td class="egrimes"> Product Type </td>
<td class="egrimes">Pistol Grip Drills</td>
</tr>
<tr class="egrimes">
<td class="egrimes"> Spindle Thread </td>
<td class="egrimes">3/8 Inch - 24 Male</td>
</tr>
</table>   </td>
  </tr>
</table>
]]>
    </summary>
    <s:tag>AT</s:tag>
    <s:tag>AT DRI</s:tag>
    <s:tag>Spindle Thread_3/8 Inch - 24 Male</s:tag>
    <s:tag>ws_group</s:tag>
    <s:tag>ws_group:ad_pricing</s:tag>
    <s:tag>ws_group:bracket_3</s:tag>
    <s:tag>ws_group:bracket_4</s:tag>
    <s:variant>
      <id>https://egrimesdirect.com/products/1812276772908</id>
      <title>Default Title</title>
      <s:price currency="CAD">820.07</s:price>
      <s:sku>AT DRI 52934</s:sku>
      <s:grams>1179</s:grams>
    </s:variant>
  </entry>
  <entry>
    <id>https://egrimesdirect.com/products/1812277198892</id>
    <published>2019-12-04T10:31:13-05:00</published>
    <updated>2019-12-04T10:31:13-05:00</updated>
    <link rel="alternate" type="text/html" href="https://egrimesdirect.com/products/dynabrade-52933"/>
    <title>Dynabrade 52933  - 1/4 Inch Drill .4 Hp 2400 Rpm Pistol-Grip Geared Rear Exhaust Jacobs</title>
    <s:type>Pistol Grip Drills</s:type>
    <s:vendor>Dynabrade</s:vendor>
    <summary type="html">
      <![CDATA[<table border="0">
  <tr>
    <td width="200"><img width="200" src="https://cdn.shopify.com/s/files/1/2737/7978/products/pistol-grip-drills-dynabrade-52933-1-4-inch-drill-4-hp-2400-rpm-pistol-grip-geared-rear-exhaust-jacobs-12782472626220.png?v=1579069525"></td>
    <td valign="bottom">
      <p>

        <strong>Vendor: </strong>Dynabrade<br>
        <strong>Type: </strong>Pistol Grip Drills<br>
        <strong>Price: </strong>
            820.07
      </p>
    </td>
  </tr>
  <tr>
    <td colspan="2">[shortdesc]<li class="extra-info">1/4 Inch Drill</li><li class="extra-info"> .4 hp (298 W) Pistol Grip Drill offered in ergonomic Dynabrade design, with comfortable textured tactile grip.
Powerful high-torque, geared air motor is ideal for countless industrial applications.</li><li class="extra-info"> Finger platform on both sides of tool allows increased stability and comfort.Comfortable textured tactile tool grip.</li><li class="extra-info"> No Reverse.</li>[/shortdesc]<h2> Product Information </h2><table class="egrimes">
<tr class="egrimes">
<td class="egrimes" style="width:35%;"> Brand </td>
<td class="egrimes">Dynabrade</td>
</tr>
<tr class="egrimes">
<td class="egrimes"> Origin Country </td>
<td class="egrimes">United States</td>
</tr>
<tr class="egrimes">
<td class="egrimes"> Product Type </td>
<td class="egrimes">Pistol Grip Drills</td>
</tr>
<tr class="egrimes">
<td class="egrimes"> Spindle Thread </td>
<td class="egrimes">3/8 Inch - 24 Male</td>
</tr>
</table>   </td>
  </tr>
</table>
]]>
    </summary>
    <s:tag>AT</s:tag>
    <s:tag>AT DRI</s:tag>
    <s:tag>Spindle Thread_3/8 Inch - 24 Male</s:tag>
    <s:tag>ws_group</s:tag>
    <s:tag>ws_group:ad_pricing</s:tag>
    <s:tag>ws_group:bracket_3</s:tag>
    <s:tag>ws_group:bracket_4</s:tag>
    <s:variant>
      <id>https://egrimesdirect.com/products/1812277198892</id>
      <title>Default Title</title>
      <s:price currency="CAD">820.07</s:price>
      <s:sku>AT DRI 52933</s:sku>
      <s:grams>907</s:grams>
    </s:variant>
  </entry>
  <entry>
    <id>https://egrimesdirect.com/products/1812290371628</id>
    <published>2019-12-04T10:31:10-05:00</published>
    <updated>2019-12-04T10:31:10-05:00</updated>
    <link rel="alternate" type="text/html" href="https://egrimesdirect.com/products/dynabrade-52834"/>
    <title>Dynabrade 52834  - 1/4 Inch Inch Drill .4 Hp 3600 Rpm Pistol-Grip Geared Rear Exhaust Dynachuck</title>
    <s:type>Pistol Grip Drills</s:type>
    <s:vendor>Dynabrade</s:vendor>
    <summary type="html">
      <![CDATA[<table border="0">
  <tr>
    <td width="200"><img width="200" src="https://cdn.shopify.com/s/files/1/2737/7978/products/pistol-grip-drills-dynabrade-52834-1-4-inch-inch-drill-4-hp-3600-rpm-pistol-grip-geared-rear-exhaust-dynachuck-12746772906028.jpg?v=1579068327"></td>
    <td valign="bottom">
      <p>

        <strong>Vendor: </strong>Dynabrade<br>
        <strong>Type: </strong>Pistol Grip Drills<br>
        <strong>Price: </strong>
            700.47
      </p>
    </td>
  </tr>
  <tr>
    <td colspan="2">[shortdesc]<li class="extra-info">1/4 Inch Drill</li><li class="extra-info"> .4 hp, 3,600 RPM, Pistol-Grip, Geared, Rear Exhaust, DynaChuck</li><li class="extra-info"> .4 hp (298 W) Pistol Grip Drill offered in ergonomic Dynabrade design, with comfortable textured tactile grip.
Powerful high-torque, geared air motor is ideal for countless industrial applications.</li><li class="extra-info"> Finger platform on both sides of tool allows increased stability and comfort.Comfortable textured tactile tool grip.</li><li class="extra-info"> No Reverse.</li>[/shortdesc]<h2> Product Information </h2><table class="egrimes">
<tr class="egrimes">
<td class="egrimes" style="width:35%;"> Brand </td>
<td class="egrimes">Dynabrade</td>
</tr>
<tr class="egrimes">
<td class="egrimes"> Air Flow </td>
<td class="egrimes">40.0</td>
</tr>
<tr class="egrimes">
<td class="egrimes"> Air Thread </td>
<td class="egrimes">1/4 Inch NPT</td>
</tr>
<tr class="egrimes">
<td class="egrimes"> Exhaust Type </td>
<td class="egrimes">Rear</td>
</tr>
<tr class="egrimes">
<td class="egrimes"> Free RPM </td>
<td class="egrimes">12000</td>
</tr>
<tr class="egrimes">
<td class="egrimes"> Height </td>
<td class="egrimes">2.9 Inch</td>
</tr>
<tr class="egrimes">
<td class="egrimes"> Hose ID </td>
<td class="egrimes">3/8 Inch</td>
</tr>
<tr class="egrimes">
<td class="egrimes"> HP </td>
<td class="egrimes">0.7</td>
</tr>
<tr class="egrimes">
<td class="egrimes"> Origin Country </td>
<td class="egrimes">United States</td>
</tr>
<tr class="egrimes">
<td class="egrimes"> Product Type </td>
<td class="egrimes">Pistol Grip Drills</td>
</tr>
<tr class="egrimes">
<td class="egrimes"> Spindle Thread </td>
<td class="egrimes">3/8 Inch - 24 Male</td>
</tr>
</table>   </td>
  </tr>
</table>
]]>
    </summary>
    <s:tag>Air Flow_40.0</s:tag>
    <s:tag>Air Thread_1/4 Inch NPT</s:tag>
    <s:tag>AT</s:tag>
    <s:tag>AT DRI</s:tag>
    <s:tag>Exhaust Type_Rear</s:tag>
    <s:tag>Free RPM_12000</s:tag>
    <s:tag>Height_2.9 Inch</s:tag>
    <s:tag>Hose ID_3/8 Inch</s:tag>
    <s:tag>HP_0.7</s:tag>
    <s:tag>Spindle Thread_3/8 Inch - 24 Male</s:tag>
    <s:tag>ws_group</s:tag>
    <s:tag>ws_group:ad_pricing</s:tag>
    <s:tag>ws_group:bracket_3</s:tag>
    <s:tag>ws_group:bracket_4</s:tag>
    <s:variant>
      <id>https://egrimesdirect.com/products/1812290371628</id>
      <title>Default Title</title>
      <s:price currency="CAD">700.47</s:price>
      <s:sku>AT DRI 52834</s:sku>
      <s:grams>1179</s:grams>
    </s:variant>
  </entry>
  <entry>
    <id>https://egrimesdirect.com/products/1812291420204</id>
    <published>2019-12-04T10:31:09-05:00</published>
    <updated>2019-12-04T10:31:09-05:00</updated>
    <link rel="alternate" type="text/html" href="https://egrimesdirect.com/products/dynabrade-52833"/>
    <title>Dynabrade 52833  - 1/4 Inch Drill .4 Hp 2400 Rpm Pistol-Grip Geared Rear Exhaust Dynachuck</title>
    <s:type>Pistol Grip Drills</s:type>
    <s:vendor>Dynabrade</s:vendor>
    <summary type="html">
      <![CDATA[<table border="0">
  <tr>
    <td width="200"><img width="200" src="https://cdn.shopify.com/s/files/1/2737/7978/products/pistol-grip-drills-dynabrade-52833-1-4-inch-drill-4-hp-2400-rpm-pistol-grip-geared-rear-exhaust-dynachuck-12746772971564.jpg?v=1579068147"></td>
    <td valign="bottom">
      <p>

        <strong>Vendor: </strong>Dynabrade<br>
        <strong>Type: </strong>Pistol Grip Drills<br>
        <strong>Price: </strong>
            700.47
      </p>
    </td>
  </tr>
  <tr>
    <td colspan="2">[shortdesc]<li class="extra-info">1/4 Inch Drill</li><li class="extra-info"> .4 hp, 2,400 RPM, Pistol-Grip, Geared, Rear Exhaust, DynaChuck</li><li class="extra-info"> .4 hp (298 W) Pistol Grip Drill offered in ergonomic Dynabrade design, with comfortable textured tactile grip.
Powerful high-torque, geared air motor is ideal for countless industrial applications.</li><li class="extra-info"> Finger platform on both sides of tool allows increased stability and comfort.Comfortable textured tactile tool grip.</li><li class="extra-info"> No Reverse.</li>[/shortdesc]<h2> Product Information </h2><table class="egrimes">
<tr class="egrimes">
<td class="egrimes" style="width:35%;"> Brand </td>
<td class="egrimes">Dynabrade</td>
</tr>
<tr class="egrimes">
<td class="egrimes"> Air Flow </td>
<td class="egrimes">39.0</td>
</tr>
<tr class="egrimes">
<td class="egrimes"> Air Thread </td>
<td class="egrimes">1/4 Inch NPT</td>
</tr>
<tr class="egrimes">
<td class="egrimes"> Exhaust Type </td>
<td class="egrimes">Rear</td>
</tr>
<tr class="egrimes">
<td class="egrimes"> Free RPM </td>
<td class="egrimes">20000</td>
</tr>
<tr class="egrimes">
<td class="egrimes"> Height </td>
<td class="egrimes">1-7/10 Inch</td>
</tr>
<tr class="egrimes">
<td class="egrimes"> Hose ID </td>
<td class="egrimes">3/8 Inch</td>
</tr>
<tr class="egrimes">
<td class="egrimes"> HP </td>
<td class="egrimes">0.7</td>
</tr>
<tr class="egrimes">
<td class="egrimes"> Origin Country </td>
<td class="egrimes">United States</td>
</tr>
<tr class="egrimes">
<td class="egrimes"> Product Type </td>
<td class="egrimes">Pistol Grip Drills</td>
</tr>
<tr class="egrimes">
<td class="egrimes"> Spindle Thread </td>
<td class="egrimes">3/8 Inch - 24 Male</td>
</tr>
</table>   </td>
  </tr>
</table>
]]>
    </summary>
    <s:tag>Air Flow_39.0</s:tag>
    <s:tag>Air Thread_1/4 Inch NPT</s:tag>
    <s:tag>AT</s:tag>
    <s:tag>AT DRI</s:tag>
    <s:tag>Exhaust Type_Rear</s:tag>
    <s:tag>Free RPM_20000</s:tag>
    <s:tag>Height_1-7/10 Inch</s:tag>
    <s:tag>Hose ID_3/8 Inch</s:tag>
    <s:tag>HP_0.7</s:tag>
    <s:tag>Spindle Thread_3/8 Inch - 24 Male</s:tag>
    <s:tag>ws_group</s:tag>
    <s:tag>ws_group:ad_pricing</s:tag>
    <s:tag>ws_group:bracket_3</s:tag>
    <s:tag>ws_group:bracket_4</s:tag>
    <s:variant>
      <id>https://egrimesdirect.com/products/1812291420204</id>
      <title>Default Title</title>
      <s:price currency="CAD">700.47</s:price>
      <s:sku>AT DRI 52833</s:sku>
      <s:grams>1179</s:grams>
    </s:variant>
  </entry>
  <entry>
    <id>https://egrimesdirect.com/products/1812290404396</id>
    <published>2019-12-04T10:31:09-05:00</published>
    <updated>2019-12-04T10:31:09-05:00</updated>
    <link rel="alternate" type="text/html" href="https://egrimesdirect.com/products/dynabrade-52835"/>
    <title>Dynabrade 52835  - 1/4 Inch Drill .4 Hp 5500 Rpm Pistol-Grip Geared Rear Exhaust Dynachuck</title>
    <s:type>Pistol Grip Drills</s:type>
    <s:vendor>Dynabrade</s:vendor>
    <summary type="html">
      <![CDATA[<table border="0">
  <tr>
    <td width="200"><img width="200" src="https://cdn.shopify.com/s/files/1/2737/7978/products/pistol-grip-drills-dynabrade-52835-1-4-inch-drill-4-hp-5500-rpm-pistol-grip-geared-rear-exhaust-dynachuck-12782471938092.png?v=1579068359"></td>
    <td valign="bottom">
      <p>

        <strong>Vendor: </strong>Dynabrade<br>
        <strong>Type: </strong>Pistol Grip Drills<br>
        <strong>Price: </strong>
            700.47
      </p>
    </td>
  </tr>
  <tr>
    <td colspan="2">[shortdesc]<li class="extra-info">1/4 Inch Drill</li><li class="extra-info"> .4 hp, 5,500 RPM, Pistol-Grip, Geared, Rear Exhaust, DynaChuck</li><li class="extra-info"> .4 hp (298 W) Pistol Grip Drill offered in ergonomic Dynabrade design, with comfortable textured tactile grip.
Powerful high-torque, geared air motor is ideal for countless industrial applications.</li><li class="extra-info"> Finger platform on both sides of tool allows increased stability and comfort.Comfortable textured tactile tool grip.</li><li class="extra-info"> No Reverse.</li>[/shortdesc]<h2> Product Information </h2><table class="egrimes">
<tr class="egrimes">
<td class="egrimes" style="width:35%;"> Brand </td>
<td class="egrimes">Dynabrade</td>
</tr>
<tr class="egrimes">
<td class="egrimes"> Air Flow </td>
<td class="egrimes">41.0</td>
</tr>
<tr class="egrimes">
<td class="egrimes"> Air Thread </td>
<td class="egrimes">1/4 Inch NPT</td>
</tr>
<tr class="egrimes">
<td class="egrimes"> Exhaust Type </td>
<td class="egrimes">Rear</td>
</tr>
<tr class="egrimes">
<td class="egrimes"> Free RPM </td>
<td class="egrimes">18000</td>
</tr>
<tr class="egrimes">
<td class="egrimes"> Height </td>
<td class="egrimes">2.9 Inch</td>
</tr>
<tr class="egrimes">
<td class="egrimes"> Hose ID </td>
<td class="egrimes">3/8 Inch</td>
</tr>
<tr class="egrimes">
<td class="egrimes"> HP </td>
<td class="egrimes">0.7</td>
</tr>
<tr class="egrimes">
<td class="egrimes"> Origin Country </td>
<td class="egrimes">United States</td>
</tr>
<tr class="egrimes">
<td class="egrimes"> Product Type </td>
<td class="egrimes">Pistol Grip Drills</td>
</tr>
<tr class="egrimes">
<td class="egrimes"> Spindle Thread </td>
<td class="egrimes">3/8 Inch - 24 Male</td>
</tr>
</table>   </td>
  </tr>
</table>
]]>
    </summary>
    <s:tag>Air Flow_41.0</s:tag>
    <s:tag>Air Thread_1/4 Inch NPT</s:tag>
    <s:tag>AT</s:tag>
    <s:tag>AT DRI</s:tag>
    <s:tag>Exhaust Type_Rear</s:tag>
    <s:tag>Free RPM_18000</s:tag>
    <s:tag>Height_2.9 Inch</s:tag>
    <s:tag>Hose ID_3/8 Inch</s:tag>
    <s:tag>HP_0.7</s:tag>
    <s:tag>Spindle Thread_3/8 Inch - 24 Male</s:tag>
    <s:tag>ws_group</s:tag>
    <s:tag>ws_group:ad_pricing</s:tag>
    <s:tag>ws_group:bracket_3</s:tag>
    <s:tag>ws_group:bracket_4</s:tag>
    <s:variant>
      <id>https://egrimesdirect.com/products/1812290404396</id>
      <title>Default Title</title>
      <s:price currency="CAD">700.47</s:price>
      <s:sku>AT DRI 52835</s:sku>
      <s:grams>1179</s:grams>
    </s:variant>
  </entry>
  <entry>
    <id>https://egrimesdirect.com/products/1812292501548</id>
    <published>2019-12-04T10:31:08-05:00</published>
    <updated>2019-12-04T10:31:08-05:00</updated>
    <link rel="alternate" type="text/html" href="https://egrimesdirect.com/products/dynabrade-52936"/>
    <title>Dynabrade 52936  - 1/4 Inch Drill .4 Hp 20000 Rpm Pistol-Grip Gearless Rear Exhaust Jacobs</title>
    <s:type>Pistol Grip Drills</s:type>
    <s:vendor>Dynabrade</s:vendor>
    <summary type="html">
      <![CDATA[<table border="0">
  <tr>
    <td width="200"><img width="200" src="https://cdn.shopify.com/s/files/1/2737/7978/products/pistol-grip-drills-dynabrade-52936-1-4-inch-drill-4-hp-20000-rpm-pistol-grip-gearless-rear-exhaust-jacobs-12746773463084.jpg?v=1579069758"></td>
    <td valign="bottom">
      <p>

        <strong>Vendor: </strong>Dynabrade<br>
        <strong>Type: </strong>Pistol Grip Drills<br>
        <strong>Price: </strong>
            696.53
      </p>
    </td>
  </tr>
  <tr>
    <td colspan="2">[shortdesc]<li class="extra-info">1/4 Inch Drill</li><li class="extra-info"> .4 hp (298 W) Pistol Grip Drill offered in ergonomic Dynabrade design, with comfortable textured tactile grip.
Powerful high-torque, geared air motor is ideal for countless industrial applications.</li><li class="extra-info"> Finger platform on both sides of tool allows increased stability and comfort.No Reverse.</li>[/shortdesc]<h2> Product Information </h2><table class="egrimes">
<tr class="egrimes">
<td class="egrimes" style="width:35%;"> Brand </td>
<td class="egrimes">Dynabrade</td>
</tr>
<tr class="egrimes">
<td class="egrimes"> Air Flow </td>
<td class="egrimes">40.0</td>
</tr>
<tr class="egrimes">
<td class="egrimes"> Air Thread </td>
<td class="egrimes">1/4 Inch NPT</td>
</tr>
<tr class="egrimes">
<td class="egrimes"> Exhaust Type </td>
<td class="egrimes">Rear</td>
</tr>
<tr class="egrimes">
<td class="egrimes"> Free RPM </td>
<td class="egrimes">12000</td>
</tr>
<tr class="egrimes">
<td class="egrimes"> Height </td>
<td class="egrimes">3-1/2 Inch</td>
</tr>
<tr class="egrimes">
<td class="egrimes"> Hose ID </td>
<td class="egrimes">3/8 Inch</td>
</tr>
<tr class="egrimes">
<td class="egrimes"> HP </td>
<td class="egrimes">0.7</td>
</tr>
<tr class="egrimes">
<td class="egrimes"> Origin Country </td>
<td class="egrimes">United States</td>
</tr>
<tr class="egrimes">
<td class="egrimes"> Product Type </td>
<td class="egrimes">Pistol Grip Drills</td>
</tr>
<tr class="egrimes">
<td class="egrimes"> Spindle Thread </td>
<td class="egrimes">3/8 Inch - 24 Male</td>
</tr>
</table>   </td>
  </tr>
</table>
]]>
    </summary>
    <s:tag>Air Flow_40.0</s:tag>
    <s:tag>Air Thread_1/4 Inch NPT</s:tag>
    <s:tag>AT</s:tag>
    <s:tag>AT DRI</s:tag>
    <s:tag>Exhaust Type_Rear</s:tag>
    <s:tag>Free RPM_12000</s:tag>
    <s:tag>Height_3-1/2 Inch</s:tag>
    <s:tag>Hose ID_3/8 Inch</s:tag>
    <s:tag>HP_0.7</s:tag>
    <s:tag>Spindle Thread_3/8 Inch - 24 Male</s:tag>
    <s:tag>ws_group</s:tag>
    <s:tag>ws_group:ad_pricing</s:tag>
    <s:tag>ws_group:bracket_3</s:tag>
    <s:tag>ws_group:bracket_4</s:tag>
    <s:variant>
      <id>https://egrimesdirect.com/products/1812292501548</id>
      <title>Default Title</title>
      <s:price currency="CAD">696.53</s:price>
      <s:sku>AT DRI 52936</s:sku>
      <s:grams>1179</s:grams>
    </s:variant>
  </entry>
  <entry>
    <id>https://egrimesdirect.com/products/1812309442604</id>
    <published>2019-12-04T10:31:06-05:00</published>
    <updated>2019-12-04T10:31:06-05:00</updated>
    <link rel="alternate" type="text/html" href="https://egrimesdirect.com/products/dynabrade-52836"/>
    <title>Dynabrade 52836  - 1/4 Inch Drill .4 Hp 20000 Rpm Pistol-Grip Geared Rear Exhaust Dynachuck</title>
    <s:type>Pistol Grip Drills</s:type>
    <s:vendor>Dynabrade</s:vendor>
    <summary type="html">
      <![CDATA[<table border="0">
  <tr>
    <td width="200"><img width="200" src="https://cdn.shopify.com/s/files/1/2737/7978/products/pistol-grip-drills-dynabrade-52836-1-4-inch-drill-4-hp-20000-rpm-pistol-grip-geared-rear-exhaust-dynachuck-12782471839788.png?v=1579068392"></td>
    <td valign="bottom">
      <p>

        <strong>Vendor: </strong>Dynabrade<br>
        <strong>Type: </strong>Pistol Grip Drills<br>
        <strong>Price: </strong>
            554.60
      </p>
    </td>
  </tr>
  <tr>
    <td colspan="2">[shortdesc]<li class="extra-info">1/4 Inch Drill</li><li class="extra-info"> .4 hp, 20,000 RPM, Pistol-Grip, Geared, Rear Exhaust DynaChuck</li><li class="extra-info"> .4 hp (298 W) Pistol Grip Drill offered in ergonomic Dynabrade design, with comfortable textured tactile grip.
Powerful high-torque, gearless, air motor is ideal for countless industrial applications.</li><li class="extra-info"> Finger platform on both sides of tool allows increased stability and comfort.Comfortable textured tactile tool grip.</li><li class="extra-info"> No Reverse.</li>[/shortdesc]<h2> Product Information </h2><table class="egrimes">
<tr class="egrimes">
<td class="egrimes" style="width:35%;"> Brand </td>
<td class="egrimes">Dynabrade</td>
</tr>
<tr class="egrimes">
<td class="egrimes"> Application </td>
<td class="egrimes">Grinding</td>
</tr>
<tr class="egrimes">
<td class="egrimes"> Arbor </td>
<td class="egrimes">7/8 Inch</td>
</tr>
<tr class="egrimes">
<td class="egrimes"> Diameter </td>
<td class="egrimes">7 Inch</td>
</tr>
<tr class="egrimes">
<td class="egrimes"> Dimensions </td>
<td class="egrimes">7x7/8</td>
</tr>
<tr class="egrimes">
<td class="egrimes"> Grit </td>
<td class="egrimes">36</td>
</tr>
<tr class="egrimes">
<td class="egrimes"> Material </td>
<td class="egrimes">3A</td>
</tr>
<tr class="egrimes">
<td class="egrimes"> Max RPM </td>
<td class="egrimes">8 500</td>
</tr>
<tr class="egrimes">
<td class="egrimes"> Mineral </td>
<td class="egrimes">Aluminum Oxide</td>
</tr>
<tr class="egrimes">
<td class="egrimes"> Origin Country </td>
<td class="egrimes">United States</td>
</tr>
<tr class="egrimes">
<td class="egrimes"> Product Type </td>
<td class="egrimes">Pistol Grip Drills</td>
</tr>
<tr class="egrimes">
<td class="egrimes"> Spindle Thread </td>
<td class="egrimes">3/8 Inch - 24 Male</td>
</tr>
</table>   </td>
  </tr>
</table>
]]>
    </summary>
    <s:tag>Arbor_7/8 Inch</s:tag>
    <s:tag>AT</s:tag>
    <s:tag>AT DRI</s:tag>
    <s:tag>Diameter_7 Inch</s:tag>
    <s:tag>Grit_36</s:tag>
    <s:tag>Material_3A</s:tag>
    <s:tag>Max RPM_8 500</s:tag>
    <s:tag>Mineral_Aluminum Oxide</s:tag>
    <s:tag>Spindle Thread_3/8 Inch - 24 Male</s:tag>
    <s:tag>ws_group</s:tag>
    <s:tag>ws_group:ad_pricing</s:tag>
    <s:tag>ws_group:bracket_3</s:tag>
    <s:tag>ws_group:bracket_4</s:tag>
    <s:variant>
      <id>https://egrimesdirect.com/products/1812309442604</id>
      <title>Default Title</title>
      <s:price currency="CAD">554.60</s:price>
      <s:sku>AT DRI 52836</s:sku>
      <s:grams>1179</s:grams>
    </s:variant>
  </entry>
  <entry>
    <id>https://egrimesdirect.com/products/1813184282668</id>
    <published>2019-05-11T12:09:37-04:00</published>
    <updated>2019-05-11T12:09:37-04:00</updated>
    <link rel="alternate" type="text/html" href="https://egrimesdirect.com/products/jet-adr380hd"/>
    <title>JET ADR380HD  - 3/8 Inch Reversible Drill Keyed Chuck Heavy Duty 404412</title>
    <s:type>Reversible Drills</s:type>
    <s:vendor>JET</s:vendor>
    <summary type="html">
      <![CDATA[<table border="0">
  <tr>
    <td width="200"><img width="200" src="https://cdn.shopify.com/s/files/1/2737/7978/products/reversible-drills-jet-adr380hd-3-8-inch-reversible-drill-keyed-chuck-heavy-duty-404412-12748824707116.jpg?v=1579478646"></td>
    <td valign="bottom">
      <p>

        <strong>Vendor: </strong>JET<br>
        <strong>Type: </strong>Reversible Drills<br>
        <strong>Price: </strong>
            260.07
      </p>
    </td>
  </tr>
  <tr>
    <td colspan="2">[shortdesc]<h4 style="color: black;">3/8 Inch Reversible Drill - Keyed Chuck - Heavy Duty</h4> <li class="extra-info">Designed for heavy duty use this powerful yet compact air drill features a heat treated cylinder, two steel motor bearing plates, black oxide finished rotor and full cage planetary gear mechanism for maximum service life</li><li class="extra-info"> Reverse switch situated for fast and easy single handed operation</li><li class="extra-info"> Complete with black rubber insulating grip for operator comfort and safety (905751)</li><li class="extra-info"> Pressure grease fitting on housing permits easy maintenance for longer tool life</li><li class="extra-info"> Air inlet screen prevents solid matter from entering the tool for extended tool life</li><li class="extra-info"> Excellent for a wide range of drilling jobs</li><li class="extra-info"> Standard Accessory: 3/8" keyed chuck (905755)</li><li class="extra-info"> Optional Accessory: 3/8" keyless chuck (905753)</li>[/shortdesc]<h2> Product Information </h2><table class="egrimes">
<tr class="egrimes">
<td class="egrimes" style="width:35%;"> Brand </td>
<td class="egrimes">JET</td>
</tr>
<tr class="egrimes">
<td class="egrimes"> Air Consumption </td>
<td class="egrimes">4</td>
</tr>
<tr class="egrimes">
<td class="egrimes"> Air Thread </td>
<td class="egrimes">1/4 Inch</td>
</tr>
<tr class="egrimes">
<td class="egrimes"> Hose Diameter </td>
<td class="egrimes">3/8 Inch</td>
</tr>
<tr class="egrimes">
<td class="egrimes"> Length </td>
<td class="egrimes">7-1/2 Inch</td>
</tr>
<tr class="egrimes">
<td class="egrimes"> Product Type </td>
<td class="egrimes">Reversible Drills</td>
</tr>
<tr class="egrimes">
<td class="egrimes"> Size </td>
<td class="egrimes">25/64 Inch</td>
</tr>
<tr class="egrimes">
<td class="egrimes"> Sound Level </td>
<td class="egrimes">86</td>
</tr>
<tr class="egrimes">
<td class="egrimes"> Vibration Level </td>
<td class="egrimes">2.5</td>
</tr>
</table>   <h2>Extra Product Information</h2><li class="extra-info">Excellent for a wide range of drilling jobs</li><li class="extra-info"> Pressure grease fitting on housing permits easy maintenance for longer tool life</li><h2>Product Information</h2><li class="extra-info">Horsepower: 0.5</li><li class="extra-info"> Free Speed : 1,800 RPM</li><li class="extra-info"> Average Air Consumption : 4 cfm</li><li class="extra-info"> Min</li><li class="extra-info">Hose Size (ID) : 3/8 Inch</li><li class="extra-info"> Air Inlet (NPT) : 1/4 Inch</li><li class="extra-info"> Chuck Capacity : 3/8 Inch</li><li class="extra-info"> Vibration: Yes</li><li class="extra-info"> Spindle Size : 3/8 Inch - 24</li><li class="extra-info"> Sound Pressure : 86 dBA</li><li class="extra-info"> Vibration: 2.5 m/s²</li></td>
  </tr>
</table>
]]>
    </summary>
    <s:tag>Air Consumption_4</s:tag>
    <s:tag>Air Thread_1/4 Inch</s:tag>
    <s:tag>AT</s:tag>
    <s:tag>AT DRI</s:tag>
    <s:tag>Hose Diameter_3/8 Inch</s:tag>
    <s:tag>Length_7-1/2 Inch</s:tag>
    <s:tag>Size_25/64 Inch</s:tag>
    <s:tag>ws_group</s:tag>
    <s:tag>ws_group:ad_pricing</s:tag>
    <s:tag>ws_group:bracket_3</s:tag>
    <s:tag>ws_group:bracket_4</s:tag>
    <s:variant>
      <id>https://egrimesdirect.com/products/1813184282668</id>
      <title>Default Title</title>
      <s:price currency="CAD">260.07</s:price>
      <s:sku>AT DRI 404412</s:sku>
      <s:grams>1409</s:grams>
    </s:variant>
  </entry>
  <entry>
    <id>https://egrimesdirect.com/products/1813114028076</id>
    <published>2019-05-11T11:43:14-04:00</published>
    <updated>2019-05-11T11:43:14-04:00</updated>
    <link rel="alternate" type="text/html" href="https://egrimesdirect.com/products/jet-905753"/>
    <title>JET 905753  - 3/8 Inch Drill Keyless Chuck 905753</title>
    <s:type>Air Drills Accessories</s:type>
    <s:vendor>JET</s:vendor>
    <summary type="html">
      <![CDATA[<table border="0">
  <tr>
    <td width="200"><img width="200" src="https://cdn.shopify.com/s/files/1/2737/7978/products/air-drills-accessories-jet-905753-3-8-inch-drill-keyless-chuck-905753-12748638519340.jpg?v=1579517312"></td>
    <td valign="bottom">
      <p>

        <strong>Vendor: </strong>JET<br>
        <strong>Type: </strong>Air Drills Accessories<br>
        <strong>Price: </strong>
            48.23
      </p>
    </td>
  </tr>
  <tr>
    <td colspan="2">[shortdesc]<h4 style="color: black;">3/8 Inch Drill Keyless Chuck</h4> [/shortdesc]<h2> Product Information </h2><table class="egrimes">
<tr class="egrimes">
<td class="egrimes" style="width:35%;"> Brand </td>
<td class="egrimes">JET</td>
</tr>
<tr class="egrimes">
<td class="egrimes"> Product Type </td>
<td class="egrimes">Air Drills Accessories</td>
</tr>
</table>   </td>
  </tr>
</table>
]]>
    </summary>
    <s:tag>AC</s:tag>
    <s:tag>AC DRI</s:tag>
    <s:tag>ws_group</s:tag>
    <s:tag>ws_group:ad_pricing</s:tag>
    <s:tag>ws_group:bracket_3</s:tag>
    <s:tag>ws_group:bracket_4</s:tag>
    <s:variant>
      <id>https://egrimesdirect.com/products/1813114028076</id>
      <title>Default Title</title>
      <s:price currency="CAD">48.23</s:price>
      <s:sku>AC DRI 905753</s:sku>
      <s:grams>200</s:grams>
    </s:variant>
  </entry>
  <entry>
    <id>https://egrimesdirect.com/products/1813103083564</id>
    <published>2019-05-11T11:39:02-04:00</published>
    <updated>2019-05-11T11:39:02-04:00</updated>
    <link rel="alternate" type="text/html" href="https://egrimesdirect.com/products/jet-905755"/>
    <title>JET 905755  - 3/8 Inch Industrial Keyed Chuck 905755</title>
    <s:type>Air Drills Accessories</s:type>
    <s:vendor>JET</s:vendor>
    <summary type="html">
      <![CDATA[<table border="0">
  <tr>
    <td width="200"><img width="200" src="https://cdn.shopify.com/s/files/1/2737/7978/products/air-drills-accessories-jet-905755-3-8-inch-industrial-keyed-chuck-905755-12748605816876.jpg?v=1579517365"></td>
    <td valign="bottom">
      <p>

        <strong>Vendor: </strong>JET<br>
        <strong>Type: </strong>Air Drills Accessories<br>
        <strong>Price: </strong>
            66.15
      </p>
    </td>
  </tr>
  <tr>
    <td colspan="2">[shortdesc]<h4 style="color: black;">3/8 Inch Industrial Keyed Chuck</h4> [/shortdesc]<h2> Product Information </h2><table class="egrimes">
<tr class="egrimes">
<td class="egrimes" style="width:35%;"> Brand </td>
<td class="egrimes">JET</td>
</tr>
<tr class="egrimes">
<td class="egrimes"> Product Type </td>
<td class="egrimes">Air Drills Accessories</td>
</tr>
</table>   </td>
  </tr>
</table>
]]>
    </summary>
    <s:tag>AC</s:tag>
    <s:tag>AC DRI</s:tag>
    <s:tag>ws_group</s:tag>
    <s:tag>ws_group:ad_pricing</s:tag>
    <s:tag>ws_group:bracket_3</s:tag>
    <s:tag>ws_group:bracket_4</s:tag>
    <s:variant>
      <id>https://egrimesdirect.com/products/1813103083564</id>
      <title>Default Title</title>
      <s:price currency="CAD">66.15</s:price>
      <s:sku>AC DRI 905755</s:sku>
      <s:grams>310</s:grams>
    </s:variant>
  </entry>
  <entry>
    <id>https://egrimesdirect.com/products/1813090107436</id>
    <published>2019-05-11T11:33:54-04:00</published>
    <updated>2019-05-11T11:33:54-04:00</updated>
    <link rel="alternate" type="text/html" href="https://egrimesdirect.com/products/jet-905756"/>
    <title>JET 905756  - 1/2 Inch Industrial Keyed Chuck 905756</title>
    <s:type>Air Drills Accessories</s:type>
    <s:vendor>JET</s:vendor>
    <summary type="html">
      <![CDATA[<table border="0">
  <tr>
    <td width="200"><img width="200" src="https://cdn.shopify.com/s/files/1/2737/7978/products/air-drills-accessories-jet-905756-1-2-inch-industrial-keyed-chuck-905756-12748567412780.jpg?v=1579517486"></td>
    <td valign="bottom">
      <p>

        <strong>Vendor: </strong>JET<br>
        <strong>Type: </strong>Air Drills Accessories<br>
        <strong>Price: </strong>
            80.31
      </p>
    </td>
  </tr>
  <tr>
    <td colspan="2">[shortdesc]<h4 style="color: black;">1/2 Inch Industrial Keyed Chuck</h4> [/shortdesc]<h2> Product Information </h2><table class="egrimes">
<tr class="egrimes">
<td class="egrimes" style="width:35%;"> Brand </td>
<td class="egrimes">JET</td>
</tr>
<tr class="egrimes">
<td class="egrimes"> Product Type </td>
<td class="egrimes">Air Drills Accessories</td>
</tr>
</table>   </td>
  </tr>
</table>
]]>
    </summary>
    <s:tag>AC</s:tag>
    <s:tag>AC DRI</s:tag>
    <s:tag>ws_group</s:tag>
    <s:tag>ws_group:ad_pricing</s:tag>
    <s:tag>ws_group:bracket_3</s:tag>
    <s:tag>ws_group:bracket_4</s:tag>
    <s:variant>
      <id>https://egrimesdirect.com/products/1813090107436</id>
      <title>Default Title</title>
      <s:price currency="CAD">80.31</s:price>
      <s:sku>AC DRI 905756</s:sku>
      <s:grams>500</s:grams>
    </s:variant>
  </entry>
  <entry>
    <id>https://egrimesdirect.com/products/1813069594668</id>
    <published>2019-05-11T11:25:58-04:00</published>
    <updated>2019-05-11T11:25:58-04:00</updated>
    <link rel="alternate" type="text/html" href="https://egrimesdirect.com/products/jet-ad38ahr"/>
    <title>JET AD38AHR  - 3/8 Inch Reversible Angle Head Drill Heavy Duty 404418</title>
    <s:type>Reversible Drills</s:type>
    <s:vendor>JET</s:vendor>
    <summary type="html">
      <![CDATA[<table border="0">
  <tr>
    <td width="200"><img width="200" src="https://cdn.shopify.com/s/files/1/2737/7978/products/reversible-drills-jet-ad38ahr-3-8-inch-reversible-angle-head-drill-heavy-duty-404418-12748510560300.jpg?v=1579478612"></td>
    <td valign="bottom">
      <p>

        <strong>Vendor: </strong>JET<br>
        <strong>Type: </strong>Reversible Drills<br>
        <strong>Price: </strong>
            261.70
      </p>
    </td>
  </tr>
  <tr>
    <td colspan="2">[shortdesc]<h4 style="color: black;">3/8 Inch Reversible Angle Head Drill - Heavy Duty</h4> <li class="extra-info">Exceptionally low profile 90° angle head design makes this drill ideal for working in confined areas</li><li class="extra-info"> Reverse valve for improved efficiency</li><li class="extra-info"> Lubrication port on the gear head permits convenient preventative maintenance resulting in extended tool life</li><li class="extra-info"> Rear exhaust outlet directs exhausted air away from the workplace for operator comfort and safety</li><li class="extra-info"> Teasing throttle delivers improved control from start up through run down</li><li class="extra-info"> Specifically designed for corner drilling, holesaw use, auto body work and other general applications</li>[/shortdesc]<h2> Product Information </h2><table class="egrimes">
<tr class="egrimes">
<td class="egrimes" style="width:35%;"> Brand </td>
<td class="egrimes">JET</td>
</tr>
<tr class="egrimes">
<td class="egrimes"> Air Consumption </td>
<td class="egrimes">4</td>
</tr>
<tr class="egrimes">
<td class="egrimes"> Product Type </td>
<td class="egrimes">Reversible Drills</td>
</tr>
<tr class="egrimes">
<td class="egrimes"> Size </td>
<td class="egrimes">1/4 Inch</td>
</tr>
<tr class="egrimes">
<td class="egrimes"> Sound Level </td>
<td class="egrimes">86.1</td>
</tr>
</table>   <h2>Extra Product Information</h2><li class="extra-info">Exceptionally low profile 90° angle head design makes this drill ideal for working in confined areas</li><li class="extra-info"> Reverse valve for improved efficiency</li><h2>Product Information</h2><li class="extra-info">Reversible : Yes</li><li class="extra-info"> Horsepower: 0.33</li><li class="extra-info"> Spindle Size : 3/8 Inch-24</li><li class="extra-info"> Free Speed : 1,700 RPM</li><li class="extra-info"> Average Air Consumption : 4 cfm</li><li class="extra-info"> Min</li><li class="extra-info">Hose Size (ID) : 3/8 Inch</li><li class="extra-info"> Vibration: 1/4 Inch</li><li class="extra-info"> Sound Pressure : 3/8 Inch - 24</li></td>
  </tr>
</table>
]]>
    </summary>
    <s:tag>Air Consumption_4</s:tag>
    <s:tag>AT</s:tag>
    <s:tag>AT DRI</s:tag>
    <s:tag>Size_1/4 Inch</s:tag>
    <s:tag>ws_group</s:tag>
    <s:tag>ws_group:ad_pricing</s:tag>
    <s:tag>ws_group:bracket_3</s:tag>
    <s:tag>ws_group:bracket_4</s:tag>
    <s:variant>
      <id>https://egrimesdirect.com/products/1813069594668</id>
      <title>Default Title</title>
      <s:price currency="CAD">261.70</s:price>
      <s:sku>AT DRI 404418</s:sku>
      <s:grams>1180</s:grams>
    </s:variant>
  </entry>
  <entry>
    <id>https://egrimesdirect.com/products/1813068316716</id>
    <published>2019-05-11T11:25:33-04:00</published>
    <updated>2019-05-11T11:25:33-04:00</updated>
    <link rel="alternate" type="text/html" href="https://egrimesdirect.com/products/jet-adx-380r"/>
    <title>JET ADX-380R  - 3/8 Inch Reversible Drill Keyed Chuck 404415</title>
    <s:type>Reversible Drills</s:type>
    <s:vendor>JET</s:vendor>
    <summary type="html">
      <![CDATA[<table border="0">
  <tr>
    <td width="200"><img width="200" src="https://cdn.shopify.com/s/files/1/2737/7978/products/reversible-drills-jet-adx-380r-3-8-inch-reversible-drill-keyed-chuck-404415-12748508004396.jpg?v=1579478915"></td>
    <td valign="bottom">
      <p>

        <strong>Vendor: </strong>JET<br>
        <strong>Type: </strong>Reversible Drills<br>
        <strong>Price: </strong>
            158.55
      </p>
    </td>
  </tr>
  <tr>
    <td colspan="2">[shortdesc]<h4 style="color: black;">3/8 Inch Reversible Drill - Keyed Chuck</h4> <li class="extra-info">Hardened steel planetary gears for long life performance</li><li class="extra-info"> Excellent power-to-weight ratio</li><li class="extra-info"> Forward / reverse switch conveniently located for single handed operation</li><li class="extra-info"> Contoured handle design and aluminum die cast throttle offer precise operator control</li><li class="extra-info"> Excellent for a wide range of drilling jobs</li><li class="extra-info"> Standard Accessory: 3/8" keyed chuck (905755)</li><li class="extra-info"> Optional Accessory: 3/8" keyless chuck (905753)</li>[/shortdesc]<h2> Product Information </h2><table class="egrimes">
<tr class="egrimes">
<td class="egrimes" style="width:35%;"> Brand </td>
<td class="egrimes">JET</td>
</tr>
<tr class="egrimes">
<td class="egrimes"> Air Consumption </td>
<td class="egrimes">4</td>
</tr>
<tr class="egrimes">
<td class="egrimes"> Air Thread </td>
<td class="egrimes">1/4 Inch</td>
</tr>
<tr class="egrimes">
<td class="egrimes"> Hose Diameter </td>
<td class="egrimes">3/8 Inch</td>
</tr>
<tr class="egrimes">
<td class="egrimes"> Length </td>
<td class="egrimes">6-3/4 Inch</td>
</tr>
<tr class="egrimes">
<td class="egrimes"> Product Type </td>
<td class="egrimes">Reversible Drills</td>
</tr>
<tr class="egrimes">
<td class="egrimes"> Size </td>
<td class="egrimes">13mm</td>
</tr>
<tr class="egrimes">
<td class="egrimes"> Sound Level </td>
<td class="egrimes">86.8</td>
</tr>
<tr class="egrimes">
<td class="egrimes"> Vibration Level </td>
<td class="egrimes">2.5</td>
</tr>
</table>   <h2>Extra Product Information</h2><li class="extra-info">Hardened steel planetary gears for long life performance</li><li class="extra-info"> Excellent power-to-weight ratio</li><h2>Product Information</h2><li class="extra-info">Free Speed : 2,200 RPM</li><li class="extra-info"> Average Air Consumption : 4 cfm</li><li class="extra-info"> Min</li><li class="extra-info">Hose Size (ID) : 3/8 Inch</li><li class="extra-info"> Air Inlet (NPT) : 1/4 Inch</li><li class="extra-info"> Chuck Capacity : 3/8 Inch</li><li class="extra-info"> Vibration: Yes</li><li class="extra-info"> Spindle Size : 3/8 Inch - 24</li><li class="extra-info"> Sound Pressure : 86.8 dBA</li><li class="extra-info"> Vibration: 2.5 m/s²</li></td>
  </tr>
</table>
]]>
    </summary>
    <s:tag>Air Consumption_4</s:tag>
    <s:tag>Air Thread_1/4 Inch</s:tag>
    <s:tag>AT</s:tag>
    <s:tag>AT DRI</s:tag>
    <s:tag>Hose Diameter_3/8 Inch</s:tag>
    <s:tag>Length_6-3/4 Inch</s:tag>
    <s:tag>Size_13mm</s:tag>
    <s:tag>ws_group</s:tag>
    <s:tag>ws_group:ad_pricing</s:tag>
    <s:tag>ws_group:bracket_3</s:tag>
    <s:tag>ws_group:bracket_4</s:tag>
    <s:variant>
      <id>https://egrimesdirect.com/products/1813068316716</id>
      <title>Default Title</title>
      <s:price currency="CAD">158.55</s:price>
      <s:sku>AT DRI 404415</s:sku>
      <s:grams>1260</s:grams>
    </s:variant>
  </entry>
  <entry>
    <id>https://egrimesdirect.com/products/1813067989036</id>
    <published>2019-05-11T11:25:23-04:00</published>
    <updated>2019-05-11T11:25:23-04:00</updated>
    <link rel="alternate" type="text/html" href="https://egrimesdirect.com/products/jet-ad380hdr"/>
    <title>JET AD380HDR  - 3/8 Inch Reversible Drill Keyless Chuck Heavy Duty 404419</title>
    <s:type>Reversible Drills</s:type>
    <s:vendor>JET</s:vendor>
    <summary type="html">
      <![CDATA[<table border="0">
  <tr>
    <td width="200"><img width="200" src="https://cdn.shopify.com/s/files/1/2737/7978/products/reversible-drills-jet-ad380hdr-3-8-inch-reversible-drill-keyless-chuck-heavy-duty-404419-12748506693676.jpg?v=1579478524"></td>
    <td valign="bottom">
      <p>

        <strong>Vendor: </strong>JET<br>
        <strong>Type: </strong>Reversible Drills<br>
        <strong>Price: </strong>
            269.60
      </p>
    </td>
  </tr>
  <tr>
    <td colspan="2">[shortdesc]<h4 style="color: black;">3/8 Inch Reversible Drill - Keyless Chuck - Heavy Duty</h4> <li class="extra-info">Designed for heavy duty use this powerful yet compact air drill features a heat treated cylinder, two steel motor bearing plates, black oxide finished rotor and full cage planetary gear mechanism for maximum service life</li><li class="extra-info"> Reverse switch situated for fast and easy single handed operation</li><li class="extra-info"> Complete with black rubber insulating grip for operator comfort and safety (905751)</li><li class="extra-info"> Pressure grease fitting on housing permits easy maintenance for longer tool life</li><li class="extra-info"> Air inlet screen prevents solid matter from entering the tool for extended tool life</li><li class="extra-info"> Excellent for a wide range of drilling jobs</li><li class="extra-info"> Standard Accessory: 3/8" keyless chuck (905753)</li><li class="extra-info"> Optional Accessory: 3/8" keyed chuck (905755)</li>[/shortdesc]<h2> Product Information </h2><table class="egrimes">
<tr class="egrimes">
<td class="egrimes" style="width:35%;"> Brand </td>
<td class="egrimes">JET</td>
</tr>
<tr class="egrimes">
<td class="egrimes"> Air Consumption </td>
<td class="egrimes">4</td>
</tr>
<tr class="egrimes">
<td class="egrimes"> Air Thread </td>
<td class="egrimes">1/4 Inch</td>
</tr>
<tr class="egrimes">
<td class="egrimes"> Hose Diameter </td>
<td class="egrimes">3/8 Inch</td>
</tr>
<tr class="egrimes">
<td class="egrimes"> Length </td>
<td class="egrimes">7-1/2 Inch</td>
</tr>
<tr class="egrimes">
<td class="egrimes"> Product Type </td>
<td class="egrimes">Reversible Drills</td>
</tr>
<tr class="egrimes">
<td class="egrimes"> Size </td>
<td class="egrimes">23/64 Inch</td>
</tr>
<tr class="egrimes">
<td class="egrimes"> Sound Level </td>
<td class="egrimes">86.8</td>
</tr>
<tr class="egrimes">
<td class="egrimes"> Vibration Level </td>
<td class="egrimes">2.5</td>
</tr>
</table>   <h2>Extra Product Information</h2><li class="extra-info">Designed for heavy duty use this powerful yet compact air drill features a heat treated cylinder, two steel motor bearing plates, black oxide finished rotor and full cage planetary gear mechanism for maximum service life</li><h2>Product Information</h2><li class="extra-info">Horsepower: 0.5</li><li class="extra-info"> Free Speed : 1,800 RPM</li><li class="extra-info"> Average Air Consumption : 4 cfm</li><li class="extra-info"> Min</li><li class="extra-info">Hose Size (ID) : 3/8 Inch</li><li class="extra-info"> Air Inlet (NPT) : 1/4 Inch</li><li class="extra-info"> Chuck Capacity : 3/8 Inch</li><li class="extra-info"> Vibration: Yes</li><li class="extra-info"> Spindle Size : 3/8 Inch - 24</li><li class="extra-info"> Sound Pressure : 86.8 dBA</li><li class="extra-info"> Vibration: 2.5 m/s²</li></td>
  </tr>
</table>
]]>
    </summary>
    <s:tag>Air Consumption_4</s:tag>
    <s:tag>Air Thread_1/4 Inch</s:tag>
    <s:tag>AT</s:tag>
    <s:tag>AT DRI</s:tag>
    <s:tag>Hose Diameter_3/8 Inch</s:tag>
    <s:tag>Length_7-1/2 Inch</s:tag>
    <s:tag>Size_23/64 Inch</s:tag>
    <s:tag>ws_group</s:tag>
    <s:tag>ws_group:ad_pricing</s:tag>
    <s:tag>ws_group:bracket_3</s:tag>
    <s:tag>ws_group:bracket_4</s:tag>
    <s:variant>
      <id>https://egrimesdirect.com/products/1813067989036</id>
      <title>Default Title</title>
      <s:price currency="CAD">269.60</s:price>
      <s:sku>AT DRI 404419</s:sku>
      <s:grams>1280</s:grams>
    </s:variant>
  </entry>
  <entry>
    <id>https://egrimesdirect.com/products/1813057994796</id>
    <published>2019-05-11T11:21:23-04:00</published>
    <updated>2019-05-11T11:21:23-04:00</updated>
    <link rel="alternate" type="text/html" href="https://egrimesdirect.com/products/jet-rdx-12"/>
    <title>JET RDX-12  - 1/2 Inch Drill Keyed Chuck 404423</title>
    <s:type>Drills</s:type>
    <s:vendor>JET</s:vendor>
    <summary type="html">
      <![CDATA[<table border="0">
  <tr>
    <td width="200"><img width="200" src="https://cdn.shopify.com/s/files/1/2737/7978/products/drills-jet-rdx-12-1-2-inch-drill-keyed-chuck-404423-12748478939180.jpg?v=1579571406"></td>
    <td valign="bottom">
      <p>

        <strong>Vendor: </strong>JET<br>
        <strong>Type: </strong>Drills<br>
        <strong>Price: </strong>
            309.26
      </p>
    </td>
  </tr>
  <tr>
    <td colspan="2">[shortdesc]<h4 style="color: black;">1/2 Inch Drill - Keyed Chuck</h4> <li class="extra-info">Double reduction planetary gear system gives low speed and high torque for heavier drilling jobs</li><li class="extra-info"> Ball and needle bearing construction</li><li class="extra-info"> Auxiliary side handle included</li><li class="extra-info"> This 500 RPM 1/2" air drill is designed for heavier steel plate drilling, cylinder honing and all jobs requiring high torque</li><li class="extra-info"> Standard Accessory: 1/2" keyed chuck (905756)</li><li class="extra-info"> Optional Accessory: 1/2" keyless chuck (905754)</li>[/shortdesc]<h2> Product Information </h2><table class="egrimes">
<tr class="egrimes">
<td class="egrimes" style="width:35%;"> Brand </td>
<td class="egrimes">JET</td>
</tr>
<tr class="egrimes">
<td class="egrimes"> Air Consumption </td>
<td class="egrimes">3</td>
</tr>
<tr class="egrimes">
<td class="egrimes"> Air Thread </td>
<td class="egrimes">1/4 Inch</td>
</tr>
<tr class="egrimes">
<td class="egrimes"> Hose Diameter </td>
<td class="egrimes">3/8 Inch</td>
</tr>
<tr class="egrimes">
<td class="egrimes"> Length </td>
<td class="egrimes">9-3/4 Inch</td>
</tr>
<tr class="egrimes">
<td class="egrimes"> Product Type </td>
<td class="egrimes">Drills</td>
</tr>
<tr class="egrimes">
<td class="egrimes"> Sound Level </td>
<td class="egrimes">87.7</td>
</tr>
<tr class="egrimes">
<td class="egrimes"> Vibration Level </td>
<td class="egrimes">2.5</td>
</tr>
</table>   <h2>Extra Product Information</h2><li class="extra-info">Double reduction planetary gear system gives low speed and high torque for heavier drilling jobs</li><li class="extra-info"> Ball and needle bearing construction</li><h2>Product Information</h2><li class="extra-info">Horsepower: 0.4</li><li class="extra-info"> Free Speed : 500 RPM</li><li class="extra-info"> Average Air Consumption : 3 cfm</li><li class="extra-info"> Min</li><li class="extra-info">Hose Size (ID) : 3/8 Inch</li><li class="extra-info"> Air Inlet (NPT) : 1/4 Inch</li><li class="extra-info"> Chuck Capacity : 1/2 Inch</li><li class="extra-info"> Vibration: No</li><li class="extra-info"> Spindle Size : 3/8 Inch - 24</li><li class="extra-info"> Sound Pressure : 87.7 dBA</li><li class="extra-info"> Vibration: 2.5 m/s²</li></td>
  </tr>
</table>
]]>
    </summary>
    <s:tag>Air Consumption_3</s:tag>
    <s:tag>Air Thread_1/4 Inch</s:tag>
    <s:tag>AT</s:tag>
    <s:tag>AT DRI</s:tag>
    <s:tag>Hose Diameter_3/8 Inch</s:tag>
    <s:tag>Length_9-3/4 Inch</s:tag>
    <s:tag>ws_group</s:tag>
    <s:tag>ws_group:ad_pricing</s:tag>
    <s:tag>ws_group:bracket_3</s:tag>
    <s:tag>ws_group:bracket_4</s:tag>
    <s:variant>
      <id>https://egrimesdirect.com/products/1813057994796</id>
      <title>Default Title</title>
      <s:price currency="CAD">309.26</s:price>
      <s:sku>AT DRI 404423</s:sku>
      <s:grams>2020</s:grams>
    </s:variant>
  </entry>
  <entry>
    <id>https://egrimesdirect.com/products/1813057732652</id>
    <published>2019-05-11T11:21:15-04:00</published>
    <updated>2019-05-11T11:21:15-04:00</updated>
    <link rel="alternate" type="text/html" href="https://egrimesdirect.com/products/jet-ad12hdr"/>
    <title>JET AD12HDR  - 1/2 Inch Reversible Drill Keyless Chuck Heavy Duty 404424</title>
    <s:type>Reversible Drills</s:type>
    <s:vendor>JET</s:vendor>
    <summary type="html">
      <![CDATA[<table border="0">
  <tr>
    <td width="200"><img width="200" src="https://cdn.shopify.com/s/files/1/2737/7978/products/reversible-drills-jet-ad12hdr-1-2-inch-reversible-drill-keyless-chuck-heavy-duty-404424-12748478218284.jpg?v=1579478434"></td>
    <td valign="bottom">
      <p>

        <strong>Vendor: </strong>JET<br>
        <strong>Type: </strong>Reversible Drills<br>
        <strong>Price: </strong>
            390.18
      </p>
    </td>
  </tr>
  <tr>
    <td colspan="2">[shortdesc]<h4 style="color: black;">1/2 Inch Reversible Drill - Keyless Chuck - Heavy Duty</h4> <li class="extra-info">Heavy duty motor with double reduction planetary gear system to 800 RPM provides exceptional power</li><li class="extra-info"> Reverse switch situated for fast and easy one handed operation</li><li class="extra-info"> Side handle provides maximum operator control and absorbs stall torque reaction for operator safety</li><li class="extra-info"> Complete with black rubber insulating grip for operator comfort and safety (905752)</li><li class="extra-info"> Ball and needle bearing construction</li><li class="extra-info"> Air inlet screen prevents solid matter from entering the tool, extends tool life</li><li class="extra-info"> Standard Accessory: 1/2" keyless chuck (905754)</li><li class="extra-info"> Optional Accessory: 1/2" keyed chuck (905756)</li>[/shortdesc]<h2> Product Information </h2><table class="egrimes">
<tr class="egrimes">
<td class="egrimes" style="width:35%;"> Brand </td>
<td class="egrimes">JET</td>
</tr>
<tr class="egrimes">
<td class="egrimes"> Air Consumption </td>
<td class="egrimes">4</td>
</tr>
<tr class="egrimes">
<td class="egrimes"> Air Thread </td>
<td class="egrimes">1/4 Inch</td>
</tr>
<tr class="egrimes">
<td class="egrimes"> Hose Diameter </td>
<td class="egrimes">3/8 Inch</td>
</tr>
<tr class="egrimes">
<td class="egrimes"> Length </td>
<td class="egrimes">9-1/2 Inch</td>
</tr>
<tr class="egrimes">
<td class="egrimes"> Product Type </td>
<td class="egrimes">Reversible Drills</td>
</tr>
<tr class="egrimes">
<td class="egrimes"> Size </td>
<td class="egrimes">1-1/2 Inch</td>
</tr>
<tr class="egrimes">
<td class="egrimes"> Sound Level </td>
<td class="egrimes">83.3</td>
</tr>
<tr class="egrimes">
<td class="egrimes"> Vibration Level </td>
<td class="egrimes">2.5</td>
</tr>
</table>   <h2>Extra Product Information</h2><li class="extra-info">Heavy duty motor with double reduction planetary gear system to 800 RPM provides exceptional power</li><li class="extra-info"> Reverse switch situated for fast and easy one handed operation</li><h2>Product Information</h2><li class="extra-info">Horsepower: 0.4</li><li class="extra-info"> Free Speed : 800 RPM</li><li class="extra-info"> Average Air Consumption : 4 cfm</li><li class="extra-info"> Min</li><li class="extra-info">Hose Size (ID) : 3/8 Inch</li><li class="extra-info"> Air Inlet (NPT) : 1/4 Inch</li><li class="extra-info"> Chuck Capacity : 1/2 Inch</li><li class="extra-info"> Vibration: Yes</li><li class="extra-info"> Spindle Size : 3/8 Inch - 24</li><li class="extra-info"> Sound Pressure : 83.3 dBA</li><li class="extra-info"> Vibration: 2.5 m/s²</li></td>
  </tr>
</table>
]]>
    </summary>
    <s:tag>Air Consumption_4</s:tag>
    <s:tag>Air Thread_1/4 Inch</s:tag>
    <s:tag>AT</s:tag>
    <s:tag>AT DRI</s:tag>
    <s:tag>Hose Diameter_3/8 Inch</s:tag>
    <s:tag>Length_9-1/2 Inch</s:tag>
    <s:tag>Size_1-1/2 Inch</s:tag>
    <s:tag>ws_group</s:tag>
    <s:tag>ws_group:ad_pricing</s:tag>
    <s:tag>ws_group:bracket_3</s:tag>
    <s:tag>ws_group:bracket_4</s:tag>
    <s:variant>
      <id>https://egrimesdirect.com/products/1813057732652</id>
      <title>Default Title</title>
      <s:price currency="CAD">390.18</s:price>
      <s:sku>AT DRI 404424</s:sku>
      <s:grams>2100</s:grams>
    </s:variant>
  </entry>
  <entry>
    <id>https://egrimesdirect.com/products/1813055832108</id>
    <published>2019-05-11T11:20:30-04:00</published>
    <updated>2019-05-11T11:20:30-04:00</updated>
    <link rel="alternate" type="text/html" href="https://egrimesdirect.com/products/jet-adr12hd"/>
    <title>JET ADR12HD  - 1/2 Inch Reversible Drill Keyed Chuck Heavy Duty 404422</title>
    <s:type>Reversible Drills</s:type>
    <s:vendor>JET</s:vendor>
    <summary type="html">
      <![CDATA[<table border="0">
  <tr>
    <td width="200"><img width="200" src="https://cdn.shopify.com/s/files/1/2737/7978/products/reversible-drills-jet-adr12hd-1-2-inch-reversible-drill-keyed-chuck-heavy-duty-404422-12748472057900.jpg?v=1579478678"></td>
    <td valign="bottom">
      <p>

        <strong>Vendor: </strong>JET<br>
        <strong>Type: </strong>Reversible Drills<br>
        <strong>Price: </strong>
            421.89
      </p>
    </td>
  </tr>
  <tr>
    <td colspan="2">[shortdesc]<h4 style="color: black;">1/2 Inch Reversible Drill - Keyed Chuck - Heavy Duty</h4> <li class="extra-info">Heavy duty motor with double reduction planetary gear system to 800 RPM provides exceptional power</li><li class="extra-info"> Reverse switch situated for fast and easy one handed operation</li><li class="extra-info"> Side handle provides maximum operator control and absorbs stall torque reaction for operator safety</li><li class="extra-info"> Complete with black rubber insulating grip for operator comfort and safety (905752)</li><li class="extra-info"> Ball and needle bearing construction</li><li class="extra-info"> Air inlet screen prevents solid matter from entering the tool, extends tool life</li><li class="extra-info"> Standard Accessory: 1/2" keyed chuck (905756)</li><li class="extra-info"> Optional Accessory: 1/2" keyless chuck (905754)</li>[/shortdesc]<h2> Product Information </h2><table class="egrimes">
<tr class="egrimes">
<td class="egrimes" style="width:35%;"> Brand </td>
<td class="egrimes">JET</td>
</tr>
<tr class="egrimes">
<td class="egrimes"> Air Consumption </td>
<td class="egrimes">4</td>
</tr>
<tr class="egrimes">
<td class="egrimes"> Air Thread </td>
<td class="egrimes">1/4 Inch</td>
</tr>
<tr class="egrimes">
<td class="egrimes"> Hose Diameter </td>
<td class="egrimes">3/8 Inch</td>
</tr>
<tr class="egrimes">
<td class="egrimes"> Length </td>
<td class="egrimes">9-1/2 Inch</td>
</tr>
<tr class="egrimes">
<td class="egrimes"> Product Type </td>
<td class="egrimes">Reversible Drills</td>
</tr>
<tr class="egrimes">
<td class="egrimes"> Size </td>
<td class="egrimes">1-1/16 Inch</td>
</tr>
<tr class="egrimes">
<td class="egrimes"> Sound Level </td>
<td class="egrimes">83.3</td>
</tr>
<tr class="egrimes">
<td class="egrimes"> Vibration Level </td>
<td class="egrimes">2.5</td>
</tr>
</table>   <h2>Extra Product Information</h2><li class="extra-info">Heavy duty motor with double reduction planetary gear system to 800 RPM provides exceptional power</li><li class="extra-info"> Reverse switch situated for fast and easy one handed operation</li><h2>Product Information</h2><li class="extra-info">Horsepower: 0.4</li><li class="extra-info"> Free Speed : 800 RPM</li><li class="extra-info"> Average Air Consumption : 4 cfm</li><li class="extra-info"> Min</li><li class="extra-info">Hose Size (ID) : 3/8 Inch</li><li class="extra-info"> Air Inlet (NPT) : 1/4 Inch</li><li class="extra-info"> Chuck Capacity : 1/2 Inch</li><li class="extra-info"> Vibration: Yes</li><li class="extra-info"> Spindle Size : 3/8 Inch - 24</li><li class="extra-info"> Sound Pressure : 83.3 dBA</li><li class="extra-info"> Vibration: 2.5 m/s²</li></td>
  </tr>
</table>
]]>
    </summary>
    <s:tag>Air Consumption_4</s:tag>
    <s:tag>Air Thread_1/4 Inch</s:tag>
    <s:tag>AT</s:tag>
    <s:tag>AT DRI</s:tag>
    <s:tag>Hose Diameter_3/8 Inch</s:tag>
    <s:tag>Length_9-1/2 Inch</s:tag>
    <s:tag>Size_1-1/16 Inch</s:tag>
    <s:tag>ws_group</s:tag>
    <s:tag>ws_group:ad_pricing</s:tag>
    <s:tag>ws_group:bracket_3</s:tag>
    <s:tag>ws_group:bracket_4</s:tag>
    <s:variant>
      <id>https://egrimesdirect.com/products/1813055832108</id>
      <title>Default Title</title>
      <s:price currency="CAD">421.89</s:price>
      <s:sku>AT DRI 404422</s:sku>
      <s:grams>2320</s:grams>
    </s:variant>
  </entry>
  <entry>
    <id>https://egrimesdirect.com/products/1813024538668</id>
    <published>2019-05-11T10:57:39-04:00</published>
    <updated>2019-05-11T10:57:39-04:00</updated>
    <link rel="alternate" type="text/html" href="https://egrimesdirect.com/products/jet-905751"/>
    <title>JET 905751  - Black Rubber Handle Cover For 404419 (Ad380Hdr) 905751</title>
    <s:type>Air Drills Accessories</s:type>
    <s:vendor>JET</s:vendor>
    <summary type="html">
      <![CDATA[<table border="0">
  <tr>
    <td width="200"><img width="200" src="https://cdn.shopify.com/s/files/1/2737/7978/products/air-drills-accessories-jet-905751-black-rubber-handle-cover-for-404419-ad380hdr-905751-12748386926636.jpg?v=1579517247"></td>
    <td valign="bottom">
      <p>

        <strong>Vendor: </strong>JET<br>
        <strong>Type: </strong>Air Drills Accessories<br>
        <strong>Price: </strong>
            9.26
      </p>
    </td>
  </tr>
  <tr>
    <td colspan="2">[shortdesc]<h4 style="color: black;">Black Rubber Handle Cover for 404419 (AD380HDR)</h4> [/shortdesc]<h2> Product Information </h2><table class="egrimes">
<tr class="egrimes">
<td class="egrimes" style="width:35%;"> Brand </td>
<td class="egrimes">JET</td>
</tr>
<tr class="egrimes">
<td class="egrimes"> Product Type </td>
<td class="egrimes">Air Drills Accessories</td>
</tr>
</table>   </td>
  </tr>
</table>
]]>
    </summary>
    <s:tag>AC</s:tag>
    <s:tag>AC DRI</s:tag>
    <s:tag>ws_group</s:tag>
    <s:tag>ws_group:ad_pricing</s:tag>
    <s:tag>ws_group:bracket_3</s:tag>
    <s:tag>ws_group:bracket_4</s:tag>
    <s:tag>ws_group:resale</s:tag>
    <s:variant>
      <id>https://egrimesdirect.com/products/1813024538668</id>
      <title>Default Title</title>
      <s:price currency="CAD">9.26</s:price>
      <s:sku>AC DRI 905751</s:sku>
      <s:grams>100</s:grams>
    </s:variant>
  </entry>
</feed>
